!     .................................................
!             ____  _       _   ____  _____   _        
!            |  _ \| |     |_| |  _ \|  ___| |_|       
!            | |_) | |___   _  | |_) | |___   _        
!            |  _ /|  _  | | | |  _ /|___  | | |       
!            | |   | | | | | | | |    ___| | | |       
!            |_|   |_| |_| |_| |_|   |_____| |_|       
!     .................................................
!     PhiPsi:     a general-purpose computational      
!                 mechanics program written in Fortran.
!     Website:    http://phipsi.top                    
!     Author:     Shi Fang from Huaiyin Institute of   
!                 Technology, HuaiAn, JiangSu, China   
!     Contact me: shifang@hyit.edu.cn      
            
finish
/clear
/FILNAME,T_Shaped_Crack
/PREP7

!................
!Parameters
!................
W               = 20.0e-3
H               = 21.0e-3
L_CD            = 10.5e-3
L_AB            = 10.0e-3
Width_of_cracks = 0.1e-3
Pressure        = 10.0e6
!................
!  Element Type
!................
et,1,182

!.....................
!Element Key Options
!.....................
KEYOPT,1,3,0    !Plane Stress
KEYOPT,1,6,0
KEYOPT,1,10,0

!........................
!  Material Properties
!........................
mp,ex,1,20e9
mp,nuxy,1,0.2

!..............
!  Modeling
!..............
k,1,0,H/2- Width_of_cracks/2
k,2,0,0
k,3,W,0
k,4,W,H
k,5,0,H
k,6,0,H/2 + Width_of_cracks/2
k,7, L_CD - Width_of_cracks/2,H/2 + Width_of_cracks/2
k,8, L_CD - Width_of_cracks/2,H/2 + L_AB/2
k,9, L_CD + Width_of_cracks/2,H/2 + L_AB/2
k,10,L_CD + Width_of_cracks/2,H/2 - L_AB/2
k,11,L_CD - Width_of_cracks/2,H/2 - L_AB/2
k,12,L_CD - Width_of_cracks/2,H/2 - Width_of_cracks/2
a,1,2,3,4,5,6,7,8,9,10,11,12,1

!....................
!  Mesh Generation
!....................
SMRT,2  
MSHKEY,0
AMESH,all

!......................
!  Boundary Conditions
!......................
NSEL,S,LOC,X,W
d,all,all

!........
! Force
!........
SFL,2,PRES,-Pressure
SFL,4,PRES,-Pressure

!........
! Solve
!........
/SOLU
time,1
OUTRES,ALL,all
SOLVE

!....................
! Post-processing
!....................
/post1
/DSCALE,ALL,10.0
set,last
PLNSOL, U,Y, 0,1.0  
! PLNSOL, S, EQV, 0, 1.0   
save
