finish
/clear
/FILNAME,PhiPsi_Contact
/Titie,SHI Fang,HYIT
/PREP7
/DSCALE,ALL,1.0
/eshape,1
H  =  0.5
W  =  0.35
size_mesh = 0.01
Pressure_x  = 0.0e6
Pressure_y  = 50.0e6

et,1,42
KEYOPT,1,3,2
KEYOPT,1,6,0
keyopt,1,10,0
mp,ex,1,20e9
mp,nuxy,1,0.2

K,1,0,0
k,2,W,0
K,3,W,H,
K,4,0,H
a,1,2,3,4
/AUTO,1
/REP,FAST

allsel
lesize,all,size_mesh
MSHAPE,0,2D
MSHKEY,0
AMESH,all

allsel
KSEL,S, , ,       1
NSLK,R
D,all,all
allsel
lsel,s,,,1,
NSLl,R,1
D,all,uy, ,
allsel

allsel
LSEL,S,LOC,Y,H
NSLl,R,1
*get,all_num,NODE,,COUNT,,
c_num = 0
*do,i,1,all_num
	*get,c_num,NODE,c_num,NXTH,
	*get,c_x,NODE,c_num,LOC,X,
	*if,c_x,EQ,0,or,c_x,EQ,W,then                     
	    F,c_num,FY,-Pressure_y*size_mesh*0.5
	*else                                                   
	    F,c_num,FY,-Pressure_y*size_mesh
	*endif
*enddo
allsel
/replot

Ansys2PhiPsi_2D.mac,'2d_uniaxial_compression'
