!     .................................................
!             ____  _       _   ____  _____   _
!            |  _ \| |     |_| |  _ \|  ___| |_|
!            | |_) | |___   _  | |_) | |___   _
!            |  _ /|  _  | | | |  _ /|___  | | |
!            | |   | | | | | | | |    ___| | | |
!            |_|   |_| |_| |_| |_|   |_____| |_|
!     .................................................
!     PhiPsi:     a general-purpose computational
!                 mechanics program written in Fortran.
!     Website:    http://phipsi.top
!     Author:     Shi Fang from Huaiyin Institute of
!                 Technology, HuaiAn, JiangSu, China
!     Contact me: shifang@hyit.edu.cn
finish
/clear
/FILNAME,ANSYS_Contact
/PREP7
/DSCALE,ALL,1.0
/eshape,on

!...............
!   Parameters
!...............
w      =   0.35
h      =   0.50
a      =   0.10/2               
angle  =   40                 
f      =   500.0e6              
COF    =   0.3                

theta = angle*3.1415926/180   
/DSCALE,ALL,1
/PNUM,KP,1
/PNUM,LINE,1

!......................
!  Elements
!......................
et,1,42
KEYOPT,1,3,2
mp,ex,1,20e9
mp,prxy,1,0.2
MP,MU,1,COF

!...........
!  Model
!...........
k,1,0,0
k,2,w,0
k,3,w,h
k,4,0,h
k,5,0,h/2-w/2/tan(theta)
k,6,w,h/2+w/2/tan(theta)
k,7,w/2+a*sin(theta),h/2+a*cos(theta)
k,8,w/2-a*sin(theta),h/2-a*cos(theta)
k,9,w/2,h/2
k,19,w/2,h/2
k,21,w/2,h
k,22,w/2,0
k,111,w/2+a/2*sin(theta),h/2+a/2*cos(theta)
k,222,w/2+a/2*sin(theta),h/2+a/2*cos(theta)
a,1,22,19,8,5,1
a,22,2,6,7,222,19,22
a,9,111,7,6,3,21,9
a,5,8,9,21,4,5

!...........
! Mesh
!...........
lesize,all,w/70
MSHKEY,0
AMESH,all

!.........................
! Boundary Condition
!.........................
allsel
NSEL,S,LOC,Y,0
d,all,uy
allsel
KSEL,S, , , 1
NSLK,R
D,all,all

!........
! Load
!........
allsel,all
SFL,14,PRES,f,
SFL,17,PRES,f,

!............
! Contact
!............
allsel,all
LSEL,S,,,3,9,6
LSEL,a,,,10,,
NSLL,S,1
CM,lowPair,NODE
allsel,all
LSEL,S,,,11,12,1
LSEL,a,,,16,
NSLL,S,1
CM,upPair,NODE
allsel,all
/COM, CONTACT PAIR CREATION - START
CM,_NODECM,NODE
CM,_ELEMCM,ELEM
CM,_KPCM,KP
CM,_LINECM,LINE
CM,_AREACM,AREA
CM,_VOLUCM,VOLU
/GSAV,cwz,gsav,,temp
MAT,1
R,3
REAL,3
ET,2,169
ET,3,172
KEYOPT,3,9,0
KEYOPT,3,10,1
! Generate the target surface
NSEL,S,,,LOWPAIR
CM,_TARGET,NODE
TYPE,2
ESLN,S,0
ESURF
CMSEL,S,_ELEMCM
! Generate the contact surface
NSEL,S,,,UPPAIR
CM,_CONTACT,NODE
TYPE,3
ESLN,S,0
ESURF
ALLSEL
ESEL,ALL
ESEL,S,TYPE,,2
ESEL,A,TYPE,,3
ESEL,R,REAL,,3
/PSYMB,ESYS,1
/PNUM,TYPE,1
/NUM,1
EPLOT
ESEL,ALL
ESEL,S,TYPE,,2
ESEL,A,TYPE,,3
ESEL,R,REAL,,3
CMSEL,A,_NODECM
CMDEL,_NODECM
CMSEL,A,_ELEMCM
CMDEL,_ELEMCM
CMSEL,S,_KPCM
CMDEL,_KPCM
CMSEL,S,_LINECM
CMDEL,_LINECM
CMSEL,S,_AREACM
CMDEL,_AREACM
CMSEL,S,_VOLUCM
CMDEL,_VOLUCM
/GRES,cwz,gsav
CMDEL,_TARGET
CMDEL,_CONTACT
/COM, CONTACT PAIR CREATION - END

!..............
! Solution
!..............
/solu
OUTRES,ALL,ALL      ! write all available results for all substeps to *.rst
time,1
nsubst,10,50,5
solve
save,all
finish


!......................
!  Post-processing
!......................
/post1
SET,LAST
CSYS,0
PLNSOL, S,1, 0,1.0
allsel
ANSYS_Contact.mac,'ANSYS_DATA'
